# Generated scenario: Scenario2_Dense3x3WithBuildings
# Trajectories: /usr/uli-net-sim/uav_rid/simulations/urbanenv_testing/scenario2_waypoints.xml
# Buildings: /usr/uli-net-sim/uav_rid/simulations/urbanenv_testing/scenario2_buildings.xml

[General]
network = uav_rid.rid_network.BasicUav

*.radioMedium.obstacleLoss.typename = "DielectricObstacleLoss"

# Network node visualization
*.visualizer.osgVisualizer.networkNodeVisualizer.displayModuleName = true

# Mobility trail visualization
*.visualizer.*.mobilityVisualizer.displayMovementTrails = true
*.visualizer.*.mobilityVisualizer.trailLength = 500

# Enable vector recording for all management layer data
*.host[*].wlan[0].mgmt.statistic-recording = true


# ==============================================================================
# Base configuration for generated urban environment scenarios
# ==============================================================================
[Config UrbanEnvBase]
# Use TurtleMobility to follow waypoints from XML file
*.host[*].mobility.typename = "TurtleMobility"
*.host[*].mobility.updateInterval = 100ms

# Enable position vector recording
*.host[*].mobility.statistic-recording = true

# Default host type (can be overridden for spoofer/ghost scenarios)
*.host[*].typename = "KalmanFilterDetectHost"
*.host[*].wlan[0].mgmt.transmitBeacon = true
*.host[*].wlan[0].mgmt.startupJitter = 0ms


# ==============================================================================
# Scenario2_Dense3x3WithBuildings
# ==============================================================================
[Config Scenario2_Dense3x3WithBuildings]
extends = UrbanEnvBase
description = "5 hosts, with buildings"

sim-time-limit = 300s
*.numHosts = 5

*.physicalEnvironment.config = xmldoc("../scenario2_buildings.xml")

# Per-host parameters (sampled deterministically from seed)
*.host[0].wlan[0].radio.transmitter.power = 15.736206dBm
*.host[0].wlan[0].mgmt.beaconInterval = 0.723914s
*.host[0].wlan[0].mgmt.beaconOffset = 0.005655s
*.host[1].wlan[0].radio.transmitter.power = 10.509232dBm
*.host[1].wlan[0].mgmt.beaconInterval = 0.667749s
*.host[1].wlan[0].mgmt.beaconOffset = 0.073597s
*.host[2].wlan[0].radio.transmitter.power = 14.018382dBm
*.host[2].wlan[0].mgmt.beaconInterval = 0.404068s
*.host[2].wlan[0].mgmt.beaconOffset = 0.060594s
*.host[3].wlan[0].radio.transmitter.power = 13.640810dBm
*.host[3].wlan[0].mgmt.beaconInterval = 0.540602s
*.host[3].wlan[0].mgmt.beaconOffset = 0.015838s
*.host[4].wlan[0].radio.transmitter.power = 12.584018dBm
*.host[4].wlan[0].mgmt.beaconInterval = 0.446766s
*.host[4].wlan[0].mgmt.beaconOffset = 0.072301s

# Trajectories
*.host[0].mobility.turtleScript = xmldoc("../scenario2_waypoints.xml", "movements/movement[@id='0']")
*.host[1].mobility.turtleScript = xmldoc("../scenario2_waypoints.xml", "movements/movement[@id='1']")
*.host[2].mobility.turtleScript = xmldoc("../scenario2_waypoints.xml", "movements/movement[@id='2']")
*.host[3].mobility.turtleScript = xmldoc("../scenario2_waypoints.xml", "movements/movement[@id='3']")
*.host[4].mobility.turtleScript = xmldoc("../scenario2_waypoints.xml", "movements/movement[@id='4']")
