# Generated by: generate_scenario.py
# Parameters: {"trajectories": "/usr/uli-net-sim/uav_rid/simulations/urbanenv_testing/scenario1_waypoints.xml", "buildings": null, "tx_power": "10-16", "beacon_interval": "0.25-0.75", "beacon_offset": "0-0.1", "sim_time_limit": 300.0, "ghost_host": null, "spoofer_host": null, "config_name": "Scenario1_Simple2x2", "seed": 1}
#
# Trajectories: /usr/uli-net-sim/uav_rid/simulations/urbanenv_testing/scenario1_waypoints.xml

[General]
network = uav_rid.rid_network.BasicUav

*.radioMedium.obstacleLoss.typename = "DielectricObstacleLoss"

# Network node visualization
*.visualizer.osgVisualizer.networkNodeVisualizer.displayModuleName = true

# Mobility trail visualization
*.visualizer.*.mobilityVisualizer.displayMovementTrails = true
*.visualizer.*.mobilityVisualizer.trailLength = 500

# Enable vector recording for all management layer data
*.host[*].wlan[0].mgmt.statistic-recording = true


# ==============================================================================
# Base configuration for generated urban environment scenarios
# ==============================================================================
[Config UrbanEnvBase]
# Use TurtleMobility to follow waypoints from XML file
*.host[*].mobility.typename = "TurtleMobility"
*.host[*].mobility.updateInterval = 100ms

# Enable position vector recording
*.host[*].mobility.statistic-recording = true

# Default host type (can be overridden for spoofer/ghost scenarios)
*.host[*].typename = "KalmanFilterDetectHost"
*.host[*].wlan[0].mgmt.transmitBeacon = true
*.host[*].wlan[0].mgmt.startupJitter = 0ms


# ==============================================================================
# Scenario1_Simple2x2
# ==============================================================================
[Config Scenario1_Simple2x2]
extends = UrbanEnvBase
description = "5 hosts, no buildings"

sim-time-limit = 300s
*.numHosts = 5

*.physicalEnvironment.config = xml("<environment/>")

# Per-host parameters (sampled deterministically from seed)
*.host[0].wlan[0].radio.transmitter.power = 10.806185dBm
*.host[0].wlan[0].mgmt.beaconInterval = 0.673717s
*.host[0].wlan[0].mgmt.beaconOffset = 0.076377s
*.host[1].wlan[0].radio.transmitter.power = 11.530414dBm
*.host[1].wlan[0].mgmt.beaconInterval = 0.497718s
*.host[1].wlan[0].mgmt.beaconOffset = 0.044949s
*.host[2].wlan[0].radio.transmitter.power = 13.909558dBm
*.host[2].wlan[0].mgmt.beaconInterval = 0.644362s
*.host[2].wlan[0].mgmt.beaconOffset = 0.009386s
*.host[3].wlan[0].radio.transmitter.power = 10.170085dBm
*.host[3].wlan[0].mgmt.beaconInterval = 0.667883s
*.host[3].wlan[0].mgmt.beaconOffset = 0.043277s
*.host[4].wlan[0].radio.transmitter.power = 14.573680dBm
*.host[4].wlan[0].mgmt.beaconInterval = 0.251053s
*.host[4].wlan[0].mgmt.beaconOffset = 0.044539s

# Trajectories
*.host[0].mobility.turtleScript = xmldoc("../scenario1_waypoints.xml", "movements/movement[@id='0']")
*.host[1].mobility.turtleScript = xmldoc("../scenario1_waypoints.xml", "movements/movement[@id='1']")
*.host[2].mobility.turtleScript = xmldoc("../scenario1_waypoints.xml", "movements/movement[@id='2']")
*.host[3].mobility.turtleScript = xmldoc("../scenario1_waypoints.xml", "movements/movement[@id='3']")
*.host[4].mobility.turtleScript = xmldoc("../scenario1_waypoints.xml", "movements/movement[@id='4']")
